*SPEF "IEEE 1481-1998"
*DESIGN "s15850"
*DATE "Wed Jan 27 11:09:58 2016"
*VENDOR "Silicon Perspective, A Cadence Company"
*PROGRAM "First Encounter"
*VERSION "08.10-p004_1"
*DESIGN_FLOW "COUPLING C" "PIN_CAP NONE" "NAME_SCOPE LOCAL"
*DIVIDER /
*DELIMITER :
*BUS_DELIMITER []
*T_UNIT 1 NS
*C_UNIT 1 PF
*R_UNIT 1 OHM
*L_UNIT 1 HENRY

*NAME_MAP

*1 OR3_33/FE_PHN180_g30
*2 OR2_247/FE_PHN33_g48
*3 NAND4_9/FE_PHN176_g42
*4 NAND3_14/FE_PHN169_g47
*5 NAND3_10/FE_PHN171_g46
*6 NAND2_853/FE_PHN49_g1696
*7 NAND2_804/FE_PHN119_g109
*8 NAND2_689/FE_PHN48_g1696
*9 NAND2_671/FE_PHN125_g109
*10 NAND2_668/FE_PHN28_g750
*11 NAND2_628/FE_PHN32_g48
*12 NAND2_540/FE_PHN43_g23
*13 NAND2_502/FE_PHN27_g750
*14 NAND2_23/FE_PHN42_g23
*15 NAND2_23/FE_PHN44_g23
*16 DFF_62/FE_PHN149_g104
*17 DFF_62/FE_PHN151_g104
*18 DFF_502/FE_PHN157_g102
*19 DFF_502/FE_PHN159_g102
*20 DFF_476/FE_PHN148_g104
*21 DFF_476/FE_PHN150_g104
*22 DFF_464/FE_PHN160_g101
*23 DFF_464/FE_PHN162_g101
*24 DFF_462/FE_PHN23_g83
*25 DFF_462/FE_PHN25_g83
*26 DFF_451/FE_PHN39_g28
*27 DFF_451/FE_PHN41_g28
*28 DFF_411/FE_PHN35_g29
*29 DFF_411/FE_PHN37_g29
*30 DFF_377/FE_PHN161_g101
*31 DFF_377/FE_PHN163_g101
*32 DFF_295/FE_PHN24_g83
*33 DFF_295/FE_PHN26_g83
*34 DFF_187/FE_PHN152_g103
*35 DFF_187/FE_PHN154_g103
*36 DFF_154/FE_PHN153_g103
*37 DFF_154/FE_PHN155_g103
*38 DFF_150/FE_PHN38_g28
*39 DFF_150/FE_PHN40_g28
*40 DFF_129/FE_PHN156_g102
*41 DFF_129/FE_PHN158_g102
*42 DFF_100/FE_PHN34_g29
*43 DFF_100/FE_PHN36_g29
*44 AND3_46/FE_PHN72_g109
*45 AND3_40/FE_PHN73_g109
*46 AND3_29/FE_PHN69_g109
*47 AND3_24/FE_PHN68_g109
*48 AND3_19/FE_PHN70_g109
*49 AND3_16/FE_PHN71_g109
*50 AND2_986/FE_PHN137_g109
*51 AND2_986/FE_PHN57_g109
*52 AND2_979/FE_PHN115_g109
*53 AND2_966/FE_PHN121_g109
*54 AND2_944/FE_PHN13_g85
*55 AND2_928/FE_PHN14_g85
*56 AND2_920/FE_PHN128_g109
*57 AND2_914/FE_PHN140_g109
*58 AND2_914/FE_PHN60_g109
*59 AND2_905/FE_PHN185_g1191
*60 AND2_897/FE_PHN16_g85
*61 AND2_896/FE_PHN94_g109
*62 AND2_895/FE_PHN84_g109
*63 AND2_874/FE_PHN97_g109
*64 AND2_867/FE_PHN5_g91
*65 AND2_861/FE_PHN77_g109
*66 AND2_851/FE_PHN117_g109
*67 AND2_836/FE_PHN142_g109
*68 AND2_836/FE_PHN62_g109
*69 AND2_831/FE_PHN96_g109
*70 AND2_821/FE_PHN126_g109
*71 AND2_815/FE_PHN78_g109
*72 AND2_807/FE_PHN17_g85
*73 AND2_804/FE_PHN50_g1696
*74 AND2_803/FE_PHN11_g85
*75 AND2_751/FE_PHN74_g109
*76 AND2_732/FE_PHN187_g1185
*77 AND2_710/FE_PHN106_g109
*78 AND2_693/FE_PHN109_g109
*79 AND2_691/FE_PHN90_g109
*80 AND2_688/FE_PHN186_g1188
*81 AND2_682/FE_PHN12_g85
*82 AND2_664/FE_PHN88_g109
*83 AND2_65/FE_PHN99_g109
*84 AND2_645/FE_PHN86_g109
*85 AND2_624/FE_PHN138_g109
*86 AND2_624/FE_PHN58_g109
*87 AND2_62/FE_PHN81_g109
*88 AND2_603/FE_PHN118_g109
*89 AND2_590/FE_PHN113_g109
*90 AND2_575/FE_PHN3_g93
*91 AND2_558/FE_PHN29_g750
*92 AND2_545/FE_PHN8_g88
*93 AND2_534/FE_PHN7_g89
*94 AND2_530/FE_PHN166_g913
*95 AND2_52/FE_PHN105_g109
*96 AND2_50/FE_PHN111_g109
*97 AND2_488/FE_PHN167_g910
*98 AND2_476/FE_PHN102_g109
*99 AND2_47/FE_PHN136_g109
*100 AND2_47/FE_PHN56_g109
*101 AND2_452/FE_PHN108_g109
*102 AND2_450/FE_PHN4_g92
*103 AND2_435/FE_PHN131_g109
*104 AND2_415/FE_PHN110_g109
*105 AND2_413/FE_PHN1_g95
*106 AND2_399/FE_PHN20_g85
*107 AND2_395/FE_PHN30_g48
*108 AND2_367/FE_PHN100_g109
*109 AND2_361/FE_PHN0_g96
*110 AND2_360/FE_PHN146_g109
*111 AND2_360/FE_PHN66_g109
*112 AND2_35/FE_PHN10_g86
*113 AND2_348/FE_PHN92_g109
*114 AND2_342/FE_PHN143_g109
*115 AND2_342/FE_PHN63_g109
*116 AND2_310/FE_PHN82_g109
*117 AND2_304/FE_PHN75_g109
*118 AND2_295/FE_PHN165_g916
*119 AND2_293/FE_PHN116_g109
*120 AND2_292/FE_PHN130_g109
*121 AND2_282/FE_PHN91_g109
*122 AND2_268/FE_PHN83_g109
*123 AND2_240/FE_PHN127_g109
*124 AND2_215/FE_PHN129_g109
*125 AND2_187/FE_PHN147_g109
*126 AND2_187/FE_PHN67_g109
*127 AND2_169/FE_PHN76_g109
*128 AND2_160/FE_PHN188_g1182
*129 AND2_157/FE_PHN87_g109
*130 AND2_1525/FE_PHN45_g1712
*131 AND2_1505/FE_PHN133_g109
*132 AND2_1505/FE_PHN53_g109
*133 AND2_1501/FE_PHN120_g109
*134 AND2_1417/FE_PHN79_g109
*135 AND2_1407/FE_PHN144_g109
*136 AND2_1407/FE_PHN64_g109
*137 AND2_1389/FE_PHN85_g109
*138 AND2_1385/FE_PHN134_g109
*139 AND2_1385/FE_PHN54_g109
*140 AND2_1383/FE_PHN164_g919
*141 AND2_1381/FE_PHN9_g87
*142 AND2_1363/FE_PHN80_g109
*143 AND2_1339/FE_PHN103_g109
*144 AND2_1325/FE_PHN98_g109
*145 AND2_1313/FE_PHN124_g109
*146 AND2_1300/FE_PHN135_g109
*147 AND2_1300/FE_PHN55_g109
*148 AND2_1293/FE_PHN18_g85
*149 AND2_1288/FE_PHN123_g109
*150 AND2_1281/FE_PHN95_g109
*151 AND2_1272/FE_PHN15_g85
*152 AND2_1265/FE_PHN114_g109
*153 AND2_1260/FE_PHN51_g1696
*154 AND2_1257/FE_PHN112_g109
*155 AND2_1245/FE_PHN132_g109
*156 AND2_1244/FE_PHN107_g109
*157 AND2_124/FE_PHN122_g109
*158 AND2_1219/FE_PHN2_g94
*159 AND2_1206/FE_PHN139_g109
*160 AND2_1206/FE_PHN59_g109
*161 AND2_1175/FE_PHN145_g109
*162 AND2_1175/FE_PHN65_g109
*163 AND2_1136/FE_PHN19_g85
*164 AND2_1128/FE_PHN101_g109
*165 AND2_1127/FE_PHN6_g90
*166 AND2_1115/FE_PHN93_g109
*167 AND2_1100/FE_PHN141_g109
*168 AND2_1100/FE_PHN61_g109
*169 AND2_1086/FE_PHN89_g109
*170 AND2_1071/FE_PHN21_g85
*171 AND2_1050/FE_PHN104_g109
*172 CK
*173 CK__L1_N0
*174 CK__L2_N0
*175 CK__L3_N0
*176 CK__L3_N1
*177 CK__L3_N2
*178 CK__L3_N3
*179 CK__L3_N4
*180 CK__L3_N5
*181 CK__L3_N6
*182 CK__L4_N0
*183 CK__L4_N1
*184 CK__L4_N10
*185 CK__L4_N11
*186 CK__L4_N12
*187 CK__L4_N13
*188 CK__L4_N14
*189 CK__L4_N15
*190 CK__L4_N16
*191 CK__L4_N17
*192 CK__L4_N18
*193 CK__L4_N19
*194 CK__L4_N2
*195 CK__L4_N20
*196 CK__L4_N21
*197 CK__L4_N22
*198 CK__L4_N23
*199 CK__L4_N24
*200 CK__L4_N25
*201 CK__L4_N26
*202 CK__L4_N27
*203 CK__L4_N28
*204 CK__L4_N29
*205 CK__L4_N3
*206 CK__L4_N30
*207 CK__L4_N31
*208 CK__L4_N32
*209 CK__L4_N33
*210 CK__L4_N34
*211 CK__L4_N35
*212 CK__L4_N36
*213 CK__L4_N37
*214 CK__L4_N38
*215 CK__L4_N39
*216 CK__L4_N4
*217 CK__L4_N40
*218 CK__L4_N41
*219 CK__L4_N5
*220 CK__L4_N6
*221 CK__L4_N7
*222 CK__L4_N8
*223 CK__L4_N9
*224 FE_PHN168_g881
*225 FE_PHN170_g47
*226 FE_PHN172_g46
*227 FE_PHN173_g45
*228 FE_PHN174_g44
*229 FE_PHN175_g43
*230 FE_PHN177_g42
*231 FE_PHN178_g41
*232 FE_PHN179_g31
*233 FE_PHN181_g18
*234 FE_PHN182_g18
*235 FE_PHN183_g18
*236 FE_PHN184_g18
*237 FE_PHN22_g85
*238 FE_PHN31_g48
*239 FE_PHN46_g1700
*240 FE_PHN47_g1700
*241 FE_PHN52_g1696
*242 I10507
*243 I10508
*244 I10509
*245 I10519
*246 I10520
*247 I10521
*248 I10769
*249 I10770
*250 I10771
*251 I10930
*252 I10931
*253 I10932
*254 I11241
*255 I11242
*256 I11243
*257 I11261
*258 I11262
*259 I11263
*260 I11278
*261 I11279
*262 I11280
*263 I11508
*264 I11509
*265 I11510
*266 I11907
*267 I11908
*268 I11909
*269 I11914
*270 I11915
*271 I11916
*272 I11935
*273 I11936
*274 I11937
*275 I11973
*276 I11974
*277 I11975
*278 I11980
*279 I11981
*280 I11982
*281 I11995
*282 I11996
*283 I11997
*284 I12002
*285 I12003
*286 I12004
*287 I12019
*288 I12020
*289 I12021
*290 I12038
*291 I12039
*292 I12040
*293 I12045
*294 I12046
*295 I12047
*296 I12060
*297 I12061
*298 I12062
*299 I12067
*300 I12068
*301 I12069
*302 I12074
*303 I12075
*304 I12076
*305 I12085
*306 I12086
*307 I12087
*308 I12092
*309 I12093
*310 I12094
*311 I12106
*312 I12107
*313 I12108
*314 I12113
*315 I12114
*316 I12115
*317 I12126
*318 I12127
*319 I12128
*320 I12136
*321 I12137
*322 I12138
*323 I12143
*324 I12144
*325 I12145
*326 I12214
*327 I12215
*328 I12216
*329 I13076
*330 I13077
*331 I13078
*332 I13089
*333 I13090
*334 I13091
*335 I13248
*336 I13249
*337 I13250
*338 I13258
*339 I13259
*340 I13260
*341 I13265
*342 I13266
*343 I13267
*344 I13272
*345 I13273
*346 I13274
*347 I13283
*348 I13284
*349 I13285
*350 I13293
*351 I13294
*352 I13295
*353 I13300
*354 I13301
*355 I13302
*356 I13307
*357 I13308
*358 I13309
*359 I13504
*360 I13505
*361 I13506
*362 I13513
*363 I13514
*364 I13515
*365 I13521
*366 I13522
*367 I13523
*368 I13529
*369 I13530
*370 I13531
*371 I13537
*372 I13538
*373 I13539
*374 I13544
*375 I13545
*376 I13546
*377 I13552
*378 I13553
*379 I13554
*380 I13559
*381 I13560
*382 I13561
*383 I13659
*384 I13660
*385 I13661
*386 I13765
*387 I13766
*388 I13767
*389 I13857
*390 I13858
*391 I13859
*392 I13867
*393 I13868
*394 I13869
*395 I13876
*396 I13877
*397 I13878
*398 I13886
*399 I13887
*400 I13888
*401 I13893
*402 I13894
*403 I13895
*404 I13900
*405 I13901
*406 I13902
*407 I13907
*408 I13908
*409 I13909
*410 I13990
*411 I13991
*412 I13992
*413 I14202
*414 I14203
*415 I14204
*416 I14209
*417 I14210
*418 I14211
*419 I14216
*420 I14217
*421 I14218
*422 I14263
*423 I14264
*424 I14265
*425 I14270
*426 I14271
*427 I14272
*428 I14277
*429 I14278
*430 I14279
*431 I14442
*432 I14443
*433 I14444
*434 I14582
*435 I14585
*436 I14596
*437 I14602
*438 I14607
*439 I14612
*440 I14613
*441 I14614
*442 I14751
*443 I14776
*444 I14779
*445 I14822
*446 I14827
*447 I14831
*448 I14835
*449 I14855
*450 I14858
*451 I14862
*452 I14866
*453 I15033
*454 I15039
*455 I15042
*456 I15045
*457 I15048
*458 I15051
*459 I15054
*460 I15057
*461 I15171
*462 I15172
*463 I15176
*464 I15177
*465 I15199
*466 I15200
*467 I15204
*468 I15205
*469 I15209
*470 I15210
*471 I15214
*472 I15215
*473 I15219
*474 I15220
*475 I15224
*476 I15225
*477 I15256
*478 I15257
*479 I15258
*480 I15430
*481 I15431
*482 I15432
*483 I15441
*484 I15442
*485 I15443
*486 I15451
*487 I15452
*488 I15453
*489 I15607
*490 I15608
*491 I15609
*492 I15615
*493 I15616
*494 I15617
*495 I15716
*496 I15717
*497 I15718
*498 I15870
*499 I15871
*500 I15872
*501 I15878
*502 I15879
*503 I15880
*504 I15890
*505 I15891
*506 I15892
*507 I15898
*508 I15899
*509 I15900
*510 I15906
*511 I15907
*512 I15908
*513 I15992
*514 I15993
*515 I15994
*516 I15999
*517 I16000
*518 I16001
*519 I16007
*520 I16008
*521 I16009
*522 I16015
*523 I16016
*524 I16017
*525 I16023
*526 I16024
*527 I16025
*528 I16030
*529 I16031
*530 I16032
*531 I16037
*532 I16038
*533 I16039
*534 I16044
*535 I16045
*536 I16046
*537 I16051
*538 I16052
*539 I16053
*540 I16058
*541 I16059
*542 I16060
*543 I16065
*544 I16066
*545 I16067
*546 I16072
*547 I16073
*548 I16074
*549 I16079
*550 I16080
*551 I16081
*552 I16086
*553 I16087
*554 I16088
*555 I16142
*556 I16145
*557 I16148
*558 I16149
*559 I16160
*560 I16161
*561 I16330
*562 I16331
*563 I16332
*564 I16427
*565 I16467
*566 I16468
*567 I16469
*568 I17051
*569 I17052
*570 I17053
*571 I17281
*572 I17282
*573 I17283
*574 I17288
*575 I17289
*576 I17290
*577 I17295
*578 I17296
*579 I17297
*580 I17305
*581 I17306
*582 I17307
*583 I17393
*584 I17394
*585 I17395
*586 I17400
*587 I17401
*588 I17402
*589 I17459
*590 I17460
*591 I17461
*592 I17485
*593 I17486
*594 I17487
*595 I17492
*596 I17493
*597 I17494
*598 I17503
*599 I17504
*600 I17505
*601 I17567
*602 I17568
*603 I17569
*604 I17584
*605 I17585
*606 I17586
*607 I4910
*608 I4911
*609 I4912
*610 I4928
*611 I4929
*612 I4930
*613 I4941
*614 I4942
*615 I4943
*616 I4954
*617 I4955
*618 I4956
*619 I4964
*620 I4965
*621 I4966
*622 I4971
*623 I4972
*624 I4973
*625 I4978
*626 I4979
*627 I4980
*628 I4985
*629 I4986
*630 I4987
*631 I4995
*632 I4996
*633 I4997
*634 I5005
*635 I5006
*636 I5007
*637 I5013
*638 I5014
*639 I5015
*640 I5023
*641 I5024
*642 I5025
*643 I5034
*644 I5035
*645 I5036
*646 I5084
*647 I5085
*648 I5104
*649 I5105
*650 I5106
*651 I5126
*652 I5127
*653 I5128
*654 I5135
*655 I5136
*656 I5137
*657 I5164
*658 I5165
*659 I5166
*660 I5184
*661 I5185
*662 I5186
*663 I5202
*664 I5203
*665 I5204
*666 I5229
*667 I5230
*668 I5231
*669 I5263
*670 I5264
*671 I5265
*672 I5282
*673 I5283
*674 I5284
*675 I5295
*676 I5296
*677 I5297
*678 I5315
*679 I5316
*680 I5317
*681 I5323
*682 I5324
*683 I5325
*684 I5341
*685 I5342
*686 I5343
*687 I5351
*688 I5352
*689 I5357
*690 I5358
*691 I5363
*692 I5366
*693 I5371
*694 I5372
*695 I5373
*696 I5449
*697 I5450
*698 I5451
*699 I5459
*700 I5460
*701 I5461
*702 I5468
*703 I5469
*704 I5470
*705 I5484
*706 I5485
*707 I5486
*708 I5500
*709 I5501
*710 I5502
*711 I5516
*712 I5517
*713 I5518
*714 I5528
*715 I5529
*716 I5530
*717 I5538
*718 I5539
*719 I5540
*720 I5570
*721 I5571
*722 I5576
*723 I5591
*724 I5592
*725 I5593
*726 I5599
*727 I5600
*728 I5604
*729 I5605
*730 I5606
*731 I5611
*732 I5612
*733 I5613
*734 I5618
*735 I5619
*736 I5620
*737 I5626
*738 I5629
*739 I5649
*740 I5675
*741 I5676
*742 I5677
*743 I5689
*744 I5690
*745 I5804
*746 I5805
*747 I5865
*748 I5866
*749 I5867
*750 I5878
*751 I5879
*752 I5880
*753 I5886
*754 I5887
*755 I5891
*756 I5892
*757 I5893
*758 I6109
*759 I6110
*760 I6111
*761 I6124
*762 I6125
*763 I6126
*764 I6136
*765 I6137
*766 I6138
*767 I6143
*768 I6144
*769 I6145
*770 I6166
*771 I6167
*772 I6168
*773 I6176
*774 I6177
*775 I6178
*776 I6186
*777 I6187
*778 I6188
*779 I6199
*780 I6200
*781 I6201
*782 I6207
*783 I6208
*784 I6209
*785 I6224
*786 I6225
*787 I6226
*788 I6287
*789 I6288
*790 I6289
*791 I6309
*792 I6310
*793 I6316
*794 I6317
*795 I6322
*796 I6323
*797 I6324
*798 I6330
*799 I6331
*800 I6337
*801 I6338
*802 I6350
*803 I6351
*804 I6447
*805 I6448
*806 I6449
*807 I6467
*808 I6468
*809 I6469
*810 I6487
*811 I6488
*812 I6489
*813 I6630
*814 I6631
*815 I6664
*816 I6665
*817 I6666
*818 I6714
*819 I6715
*820 I6716
*821 I6746
*822 I6747
*823 I6748
*824 I6760
*825 I6761
*826 I6762
*827 I6770
*828 I6771
*829 I6772
*830 I6777
*831 I6778
*832 I6779
*833 I6792
*834 I6793
*835 I6794
*836 I6805
*837 I6806
*838 I6807
*839 I6825
*840 I6826
*841 I6827
*842 I6836
*843 I6837
*844 I6838
*845 I6879
*846 I6880
*847 I6881
*848 I6988
*849 I6989
*850 I6990
*851 I7033
*852 I7034
*853 I7035
*854 I7223
*855 I7224
*856 I7225
*857 I7321
*858 I7322
*859 I7323
*860 I7562
*861 I7563
*862 I7564
*863 I7683
*864 I7684
*865 I7685
*866 I7863
*867 I7864
*868 I7865
*869 I7875
*870 I7876
*871 I7877
*872 I8178
*873 I8179
*874 I8180
*875 I8479
*876 I8480
*877 I8481
*878 I8513
*879 I8514
*880 I8515
*881 I8527
*882 I8528
*883 I8529
*884 I8543
*885 I8544
*886 I8545
*887 I8561
*888 I8562
*889 I8563
*890 I8575
*891 I8576
*892 I8577
*893 I8589
*894 I8590
*895 I8591
*896 I8604
*897 I8605
*898 I8606
*899 I8624
*900 I8625
*901 I8626
*902 I8640
*903 I8641
*904 I8642
*905 I8650
*906 I8651
*907 I8652
*908 I8662
*909 I8663
*910 I8664
*911 I8669
*912 I8670
*913 I8671
*914 I8676
*915 I8677
*916 I8678
*917 I8715
*918 I8716
*919 I8717
*920 I8728
*921 I8729
*922 I8730
*923 I8738
*924 I8739
*925 I8740
*926 I8750
*927 I8751
*928 I8752
*929 I8761
*930 I8762
*931 I8763
*932 I8770
*933 I8771
*934 I8772
*935 I8778
*936 I8779
*937 I8780
*938 I8786
*939 I8787
*940 I8788
*941 I8795
*942 I8796
*943 I8797
*944 I8803
*945 I8804
*946 I8805
*947 I9006
*948 I9007
*949 I9008
*950 I9557
*951 I9558
*952 I9559
*953 I9574
*954 I9575
*955 I9576
*956 I9946
*957 I9947
*958 I9948
*959 g1
*960 g100
*961 g10001
*962 g10007
*963 g10013
*964 g10019
*965 g10025
*966 g1003
*967 g10043
*968 g1007
*969 g101
*970 g1011
*971 g10144
*972 g10149
*973 g1015
*974 g10153
*975 g1019
*976 g102
*977 g10229
*978 g1023
*979 g10230
*980 g10231
*981 g10232
*982 g10237
*983 g10239
*984 g10240
*985 g10268
*986 g1027
*987 g10285
*988 g10286
*989 g10287
*990 g10291
*991 g10295
*992 g10297
*993 g10298
*994 g10299
*995 g103
*996 g10300
*997 g10301
*998 g10302
*999 g10303
*1000 g10304
*1001 g10306
*1002 g10308
*1003 g10312
*1004 g10316
*1005 g1032
*1006 g10322
*1007 g10324
*1008 g10325
*1009 g10328
*1010 g10331
*1011 g10333
*1012 g10334
*1013 g10348
*1014 g1035
*1015 g10357
*1016 g10358
*1017 g10359
*1018 g10360
*1019 g10362
*1020 g10363
*1021 g10364
*1022 g10365
*1023 g10366
*1024 g10367
*1025 g10368
*1026 g10369
*1027 g10370
*1028 g10371
*1029 g10372
*1030 g10373
*1031 g10374
*1032 g10375
*1033 g10376
*1034 g10377
*1035 g10379
*1036 g1038
*1037 g10381
*1038 g10382
*1039 g10383
*1040 g10384
*1041 g10385
*1042 g10386
*1043 g10392
*1044 g10394
*1045 g10396
*1046 g104
*1047 g10401
*1048 g1041
*1049 g10420
*1050 g10422
*1051 g10423
*1052 g10424
*1053 g10425
*1054 g10426
*1055 g10427
*1056 g10428
*1057 g10429
*1058 g10430
*1059 g10432
*1060 g10433
*1061 g10434
*1062 g10435
*1063 g10436
*1064 g10438
*1065 g1044
*1066 g10440
*1067 g10441
*1068 g10442
*1069 g10443
*1070 g10445
*1071 g10446
*1072 g10447
*1073 g10448
*1074 g10449
*1075 g10450
*1076 g10451
*1077 g10452
*1078 g10453
*1079 g10454
*1080 g10455
*1081 g10457
*1082 g10459
*1083 g10461
*1084 g10463
*1085 g10465
*1086 g10467
*1087 g10468
*1088 g10469
*1089 g1047
*1090 g10470
*1091 g10472
*1092 g10474
*1093 g10475
*1094 g10476
*1095 g10477
*1096 g10478
*1097 g10479
*1098 g10480
*1099 g10481
*1100 g10482
*1101 g10483
*1102 g10484
*1103 g10485
*1104 g10489
*1105 g10494
*1106 g10495
*1107 g10496
*1108 g10497
*1109 g105
*1110 g1050
*1111 g10500
*1112 g10501
*1113 g10502
*1114 g10503
*1115 g10504
*1116 g10505
*1117 g10506
*1118 g10507
*1119 g10508
*1120 g10509
*1121 g10510
*1122 g10511
*1123 g10512
*1124 g10513
*1125 g10514
*1126 g10518
*1127 g10521
*1128 g10522
*1129 g10529
*1130 g1053
*1131 g10533
*1132 g10544
*1133 g10549
*1134 g10550
*1135 g10554
*1136 g10555
*1137 g10556
*1138 g10557
*1139 g10558
*1140 g10559
*1141 g1056
*1142 g10560
*1143 g10561
*1144 g10562
*1145 g10563
*1146 g10564
*1147 g10567
*1148 g10570
*1149 g10581
*1150 g10582
*1151 g1059
*1152 g10594
*1153 g10595
*1154 g10597
*1155 g10599
*1156 g1062
*1157 g10622
*1158 g10623
*1159 g10624
*1160 g10625
*1161 g10626
*1162 g10627
*1163 g10628
*1164 g10633
*1165 g10634
*1166 g10635
*1167 g10638
*1168 g10639
*1169 g10642
*1170 g10643
*1171 g10646
*1172 g10649
*1173 g1065
*1174 g10652
*1175 g10655
*1176 g10658
*1177 g10661
*1178 g10662
*1179 g10663
*1180 g10664
*1181 g10665
*1182 g10666
*1183 g10667
*1184 g10669
*1185 g10670
*1186 g10671
*1187 g10672
*1188 g10673
*1189 g1068
*1190 g10680
*1191 g10681
*1192 g10682
*1193 g10684
*1194 g10685
*1195 g10686
*1196 g10690
*1197 g10701
*1198 g10702
*1199 g10705
*1200 g10706
*1201 g10707
*1202 g1071
*1203 g10711
*1204 g10715
*1205 g10716
*1206 g10717
*1207 g10718
*1208 g10719
*1209 g10720
*1210 g10721
*1211 g10722
*1212 g10723
*1213 g10724
*1214 g10725
*1215 g10726
*1216 g10727
*1217 g10728
*1218 g10731
*1219 g10732
*1220 g10733
*1221 g10736
*1222 g10737
*1223 g10738
*1224 g10739
*1225 g1074
*1226 g10740
*1227 g10741
*1228 g10742
*1229 g10743
*1230 g10744
*1231 g10745
*1232 g10746
*1233 g10750
*1234 g10751
*1235 g10752
*1236 g10753
*1237 g10758
*1238 g10759
*1239 g10760
*1240 g10761
*1241 g10762
*1242 g10763
*1243 g10764
*1244 g10765
*1245 g10766
*1246 g10767
*1247 g10768
*1248 g10769
*1249 g1077
*1250 g10770
*1251 g10771
*1252 g10772
*1253 g10773
*1254 g10776
*1255 g10777
*1256 g10778
*1257 g10780
*1258 g10782
*1259 g10784
*1260 g10785
*1261 g10788
*1262 g10791
*1263 g10793
*1264 g10795
*1265 g10797
*1266 g10798
*1267 g10799
*1268 g108
*1269 g1080
*1270 g10800
*1271 g10801
*1272 g10805
*1273 g10807
*1274 g10808
*1275 g10809
*1276 g10818
*1277 g1083
*1278 g10849
*1279 g10853
*1280 g10855
*1281 g10856
*1282 g10857
*1283 g10858
*1284 g10859
*1285 g1086
*1286 g10860
*1287 g10861
*1288 g10862
*1289 g10863
*1290 g10864
*1291 g10865
*1292 g10866
*1293 g10886
*1294 g1089
*1295 g10898
*1296 g109
*1297 g1092
*1298 g10923
*1299 g10933
*1300 g10936
*1301 g10937
*1302 g10946
*1303 g10948
*1304 g10949
*1305 g1095
*1306 g10950
*1307 g10969
*1308 g10970
*1309 g10971
*1310 g1098
*1311 g11005
*1312 g11006
*1313 g11007
*1314 g11008
*1315 g11009
*1316 g1101
*1317 g11010
*1318 g11011
*1319 g11012
*1320 g11013
*1321 g11015
*1322 g11018
*1323 g11019
*1324 g11020
*1325 g11021
*1326 g11022
*1327 g11023
*1328 g11024
*1329 g11025
*1330 g11026
*1331 g11027
*1332 g11028
*1333 g11029
*1334 g11030
*1335 g11031
*1336 g11032
*1337 g1104
*1338 g11058
*1339 g1107
*1340 g11070
*1341 g11077
*1342 g11085
*1343 g11087
*1344 g11091
*1345 g11092
*1346 g11093
*1347 g11094
*1348 g11095
*1349 g11097
*1350 g11098
*1351 g11099
*1352 g1110
*1353 g11100
*1354 g11101
*1355 g11102
*1356 g11103
*1357 g11104
*1358 g11105
*1359 g1113
*1360 g11143
*1361 g11144
*1362 g11145
*1363 g11146
*1364 g11147
*1365 g11148
*1366 g11149
*1367 g11150
*1368 g11151
*1369 g11152
*1370 g11153
*1371 g11154
*1372 g11156
*1373 g11158
*1374 g11161
*1375 g11163
*1376 g11164
*1377 g11165
*1378 g11166
*1379 g11167
*1380 g11168
*1381 g11169
*1382 g1117
*1383 g11170
*1384 g11171
*1385 g11172
*1386 g11173
*1387 g11174
*1388 g11175
*1389 g11176
*1390 g11177
*1391 g11178
*1392 g11186
*1393 g11187
*1394 g11188
*1395 g11189
*1396 g11190
*1397 g11192
*1398 g11194
*1399 g11196
*1400 g11198
*1401 g11201
*1402 g11204
*1403 g11206
*1404 g11209
*1405 g1121
*1406 g11210
*1407 g11211
*1408 g11212
*1409 g11213
*1410 g11214
*1411 g11215
*1412 g11216
*1413 g11217
*1414 g11218
*1415 g11219
*1416 g11220
*1417 g11221
*1418 g11222
*1419 g11223
*1420 g11224
*1421 g11225
*1422 g11226
*1423 g11227
*1424 g11228
*1425 g11229
*1426 g11230
*1427 g11231
*1428 g11232
*1429 g11233
*1430 g11234
*1431 g11235
*1432 g11236
*1433 g11237
*1434 g11238
*1435 g11240
*1436 g11246
*1437 g11247
*1438 g11248
*1439 g11249
*1440 g1125
*1441 g11252
*1442 g11253
*1443 g11254
*1444 g11255
*1445 g11256
*1446 g11257
*1447 g11258
*1448 g11259
*1449 g11260
*1450 g11261
*1451 g11262
*1452 g11263
*1453 g11264
*1454 g11265
*1455 g11266
*1456 g11267
*1457 g11268
*1458 g11269
*1459 g11270
*1460 g11271
*1461 g11272
*1462 g11273
*1463 g11274
*1464 g11275
*1465 g11276
*1466 g11277
*1467 g11278
*1468 g11279
*1469 g11280
*1470 g11281
*1471 g11282
*1472 g11283
*1473 g11285
*1474 g11286
*1475 g11288
*1476 g1129
*1477 g11290
*1478 g11291
*1479 g11292
*1480 g11293
*1481 g11294
*1482 g11295
*1483 g11296
*1484 g11297
*1485 g11298
*1486 g11299
*1487 g113
*1488 g11300
*1489 g11302
*1490 g11303
*1491 g11304
*1492 g11305
*1493 g11306
*1494 g11308
*1495 g11310
*1496 g11312
*1497 g11314
*1498 g11316
*1499 g11318
*1500 g11320
*1501 g11321
*1502 g11324
*1503 g11325
*1504 g11326
*1505 g11327
*1506 g11328
*1507 g11329
*1508 g1133
*1509 g11330
*1510 g11331
*1511 g11332
*1512 g11333
*1513 g11334
*1514 g11335
*1515 g11336
*1516 g11337
*1517 g11338
*1518 g11340
*1519 g11349
*1520 g1137
*1521 g11372
*1522 g11376
*1523 g11380
*1524 g11387
*1525 g11391
*1526 g11392
*1527 g11393
*1528 g114
*1529 g11407
*1530 g1141
*1531 g11413
*1532 g11414
*1533 g11415
*1534 g11416
*1535 g11418
*1536 g11430
*1537 g11443
*1538 g11448
*1539 g11449
*1540 g1145
*1541 g11455
*1542 g11456
*1543 g11458
*1544 g11459
*1545 g11460
*1546 g11461
*1547 g11462
*1548 g11463
*1549 g11464
*1550 g11465
*1551 g11474
*1552 g11478
*1553 g11480
*1554 g11481
*1555 g11482
*1556 g11483
*1557 g11484
*1558 g11485
*1559 g11486
*1560 g11487
*1561 g11488
*1562 g11489
*1563 g1149
*1564 g11490
*1565 g11491
*1566 g11492
*1567 g11496
*1568 g115
*1569 g11514
*1570 g11519
*1571 g1153
*1572 g11538
*1573 g11544
*1574 g11549
*1575 g11551
*1576 g11552
*1577 g11553
*1578 g11554
*1579 g11555
*1580 g11556
*1581 g11557
*1582 g11558
*1583 g11559
*1584 g11560
*1585 g11561
*1586 g1157
*1587 g11571
*1588 g11579
*1589 g11580
*1590 g11581
*1591 g11582
*1592 g11583
*1593 g11584
*1594 g11585
*1595 g11586
*1596 g11587
*1597 g11588
*1598 g11589
*1599 g11590
*1600 g11591
*1601 g11592
*1602 g11595
*1603 g11597
*1604 g11599
*1605 g1160
*1606 g11600
*1607 g11601
*1608 g11602
*1609 g11603
*1610 g11604
*1611 g11605
*1612 g11606
*1613 g11607
*1614 g11608
*1615 g11609
*1616 g11610
*1617 g11612
*1618 g11613
*1619 g11615
*1620 g11624
*1621 g11625
*1622 g1163
*1623 g11636
*1624 g11637
*1625 g11639
*1626 g11640
*1627 g11641
*1628 g11647
*1629 g1166
*1630 g1169
*1631 g1170
*1632 g1173
*1633 g1176
*1634 g1179
*1635 g1182
*1636 g1185
*1637 g1188
*1638 g119
*1639 g1191
*1640 g1194
*1641 g1197
*1642 g12
*1643 g1200
*1644 g1203
*1645 g1209
*1646 g1212
*1647 g1215
*1648 g1216
*1649 g1217
*1650 g1218
*1651 g1223
*1652 g1227
*1653 g123
*1654 g1231
*1655 g1235
*1656 g1240
*1657 g1245
*1658 g1250
*1659 g1255
*1660 g126
*1661 g1260
*1662 g1265
*1663 g127
*1664 g1270
*1665 g1275
*1666 g1280
*1667 g1284
*1668 g1289
*1669 g1292
*1670 g1296
*1671 g1300
*1672 g1304
*1673 g1308
*1674 g131
*1675 g1311
*1676 g1314
*1677 g1317
*1678 g1318
*1679 g1321
*1680 g1324
*1681 g1327
*1682 g1330
*1683 g1333
*1684 g1336
*1685 g1341
*1686 g1346
*1687 g135
*1688 g1351
*1689 g1356
*1690 g1357
*1691 g1360
*1692 g1361
*1693 g1362
*1694 g1365
*1695 g1368
*1696 g1371
*1697 g1374
*1698 g1377
*1699 g1380
*1700 g1383
*1701 g1386
*1702 g1389
*1703 g139
*1704 g1393
*1705 g1394
*1706 g1397
*1707 g1400
*1708 g1403
*1709 g1407
*1710 g1411
*1711 g1415
*1712 g1419
*1713 g1424
*1714 g1428
*1715 g143
*1716 g1432
*1717 g1436
*1718 g1440
*1719 g1444
*1720 g1448
*1721 g1453
*1722 g1458
*1723 g1462
*1724 g1466
*1725 g1470
*1726 g1474
*1727 g1478
*1728 g148
*1729 g1482
*1730 g1486
*1731 g1490
*1732 g1494
*1733 g1499
*1734 g1504
*1735 g1508
*1736 g1512
*1737 g1515
*1738 g1520
*1739 g1524
*1740 g1527
*1741 g1528
*1742 g153
*1743 g1531
*1744 g1534
*1745 g1537
*1746 g1540
*1747 g1543
*1748 g1546
*1749 g1549
*1750 g1552
*1751 g1555
*1752 g1558
*1753 g1561
*1754 g1564
*1755 g1567
*1756 g1570
*1757 g1571
*1758 g1574
*1759 g1577
*1760 g158
*1761 g1580
*1762 g1583
*1763 g1586
*1764 g1589
*1765 g1592
*1766 g1595
*1767 g1598
*1768 g16
*1769 g1601
*1770 g1604
*1771 g1607
*1772 g1610
*1773 g1615
*1774 g1618
*1775 g162
*1776 g1621
*1777 g1624
*1778 g1627
*1779 g1630
*1780 g1633
*1781 g1636
*1782 g1639
*1783 g1642
*1784 g1645
*1785 g1648
*1786 g1651
*1787 g1654
*1788 g1657
*1789 g166
*1790 g1660
*1791 g1663
*1792 g1666
*1793 g1669
*1794 g1672
*1795 g1675
*1796 g1678
*1797 g1681
*1798 g1684
*1799 g1687
*1800 g1690
*1801 g1696
*1802 g17
*1803 g170
*1804 g1700
*1805 g1703
*1806 g1707
*1807 g1710
*1808 g1711
*1809 g1712
*1810 g1713
*1811 g1718
*1812 g1721
*1813 g1724
*1814 g1727
*1815 g1730
*1816 g1733
*1817 g1736
*1818 g1737
*1819 g1738
*1820 g174
*1821 g1741
*1822 g1744
*1823 g1747
*1824 g1750
*1825 g1753
*1826 g1756
*1827 g1759
*1828 g1762
*1829 g1765
*1830 g1766
*1831 g1771
*1832 g1776
*1833 g178
*1834 g1781
*1835 g1786
*1836 g1791
*1837 g1796
*1838 g18
*1839 g1801
*1840 g1806
*1841 g1810
*1842 g1811
*1843 g1814
*1844 g182
*1845 g1822
*1846 g1828
*1847 g1834
*1848 g1840
*1849 g1845
*1850 g1848
*1851 g1849
*1852 g1850
*1853 g1853
*1854 g1854
*1855 g1857
*1856 g186
*1857 g1861
*1858 g1864
*1859 g1868
*1860 g1872
*1861 g1878
*1862 g1882
*1863 g1887
*1864 g1891
*1865 g1896
*1866 g1900
*1867 g1905
*1868 g1909
*1869 g1914
*1870 g1918
*1871 g192
*1872 g1923
*1873 g1927
*1874 g1932
*1875 g1936
*1876 g1941
*1877 g1945
*1878 g1950
*1879 g1955
*1880 g1956
*1881 g1957
*1882 g1958
*1883 g1959
*1884 g1960
*1885 g1961
*1886 g197
*1887 g201
*1888 g207
*1889 g2081
*1890 g2088
*1891 g2091
*1892 g2096
*1893 g2099
*1894 g2102
*1895 g2104
*1896 g2105
*1897 g2106
*1898 g2107
*1899 g2109
*1900 g2111
*1901 g2115
*1902 g2117
*1903 g2120
*1904 g213
*1905 g2132
*1906 g2160
*1907 g2161
*1908 g2167
*1909 g2177
*1910 g2180
*1911 g219
*1912 g2204
*1913 g2205
*1914 g2215
*1915 g2223
*1916 g2236
*1917 g225
*1918 g2250
*1919 g2257
*1920 g2260
*1921 g2264
*1922 g2272
*1923 g2274
*1924 g2276
*1925 g23
*1926 g2303
*1927 g2305
*1928 g2306
*1929 g2309
*1930 g231
*1931 g2310
*1932 g2315
*1933 g2316
*1934 g2321
*1935 g2325
*1936 g2353
*1937 g2354
*1938 g2355
*1939 g237
*1940 g2372
*1941 g2379
*1942 g2380
*1943 g2389
*1944 g2405
*1945 g2419
*1946 g243
*1947 g2433
*1948 g2437
*1949 g2439
*1950 g2445
*1951 g2459
*1952 g2478
*1953 g248
*1954 g2493
*1955 g2496
*1956 g2499
*1957 g2500
*1958 g2501
*1959 g2510
*1960 g2511
*1961 g2514
*1962 g2515
*1963 g2516
*1964 g2517
*1965 g2521
*1966 g2522
*1967 g2525
*1968 g2528
*1969 g253
*1970 g2531
*1971 g2534
*1972 g2538
*1973 g254
*1974 g2544
*1975 g255
*1976 g2555
*1977 g256
*1978 g2561
*1979 g2563
*1980 g257
*1981 g258
*1982 g259
*1983 g26
*1984 g260
*1985 g2601
*1986 g2602
*1987 g2603
*1988 g2604
*1989 g2605
*1990 g2606
*1991 g2607
*1992 g2608
*1993 g2609
*1994 g261
*1995 g2610
*1996 g2611
*1997 g2612
*1998 g262
*1999 g263
*2000 g2648
*2001 g266
*2002 g269
*2003 g27
*2004 g272
*2005 g2744
*2006 g275
*2007 g2756
*2008 g2760
*2009 g2776
*2010 g278
*2011 g2792
*2012 g2794
*2013 g2795
*2014 g28
*2015 g2800
*2016 g2804
*2017 g2807
*2018 g281
*2019 g284
*2020 g2862
*2021 g2863
*2022 g287
*2023 g2892
*2024 g2895
*2025 g29
*2026 g290
*2027 g2910
*2028 g2911
*2029 g2917
*2030 g2918
*2031 g293
*2032 g2938
*2033 g2939
*2034 g2940
*2035 g2943
*2036 g2944
*2037 g2945
*2038 g2947
*2039 g2948
*2040 g2950
*2041 g2951
*2042 g2957
*2043 g2959
*2044 g296
*2045 g2961
*2046 g2963
*2047 g2970
*2048 g2979
*2049 g2981
*2050 g2984
*2051 g2986
*2052 g2987
*2053 g2988
*2054 g299
*2055 g2990
*2056 g30
*2057 g3003
*2058 g3007
*2059 g3008
*2060 g3010
*2061 g3011
*2062 g3015
*2063 g302
*2064 g3041
*2065 g3047
*2066 g305
*2067 g3056
*2068 g3061
*2069 g3062
*2070 g3069
*2071 g3070
*2072 g3071
*2073 g3087
*2074 g3089
*2075 g309
*2076 g3098
*2077 g31
*2078 g3101
*2079 g3104
*2080 g3106
*2081 g3107
*2082 g3108
*2083 g3111
*2084 g3118
*2085 g312
*2086 g3120
*2087 g315
*2088 g318
*2089 g32
*2090 g3200
*2091 g3204
*2092 g3205
*2093 g3209
*2094 g321
*2095 g3215
*2096 g3221
*2097 g3222
*2098 g324
*2099 g3247
*2100 g3257
*2101 g3261
*2102 g3263
*2103 g3268
*2104 g327
*2105 g3273
*2106 g3275
*2107 g3281
*2108 g3284
*2109 g3287
*2110 g33
*2111 g330
*2112 g3301
*2113 g3304
*2114 g3322
*2115 g3327
*2116 g333
*2117 g3354
*2118 g336
*2119 g3374
*2120 g3381
*2121 g3383
*2122 g3389
*2123 g339
*2124 g3396
*2125 g34
*2126 g3400
*2127 g3412
*2128 g342
*2129 g3422
*2130 g3423
*2131 g3429
*2132 g3434
*2133 g345
*2134 g3460
*2135 g3462
*2136 g348
*2137 g3497
*2138 g35
*2139 g3506
*2140 g351
*2141 g3512
*2142 g3513
*2143 g3516
*2144 g3524
*2145 g3529
*2146 g3530
*2147 g3533
*2148 g3536
*2149 g354
*2150 g3563
*2151 g357
*2152 g3584
*2153 g3585
*2154 g3586
*2155 g36
*2156 g360
*2157 g3623
*2158 g3625
*2159 g3626
*2160 g363
*2161 g3631
*2162 g3634
*2163 g366
*2164 g3661
*2165 g3662
*2166 g3681
*2167 g3684
*2168 g3685
*2169 g3688
*2170 g369
*2171 g3695
*2172 g3696
*2173 g3698
*2174 g37
*2175 g3706
*2176 g3714
*2177 g3717
*2178 g3718
*2179 g3734
*2180 g374
*2181 g3753
*2182 g3766
*2183 g3771
*2184 g3772
*2185 g378
*2186 g38
*2187 g3804
*2188 g3807
*2189 g3813
*2190 g3818
*2191 g3819
*2192 g382
*2193 g3829
*2194 g386
*2195 g3860
*2196 g3863
*2197 g3875
*2198 g3879
*2199 g3880
*2200 g39
*2201 g3904
*2202 g3908
*2203 g391
*2204 g3912
*2205 g3939
*2206 g3942
*2207 g396
*2208 g3970
*2209 g3974
*2210 g3978
*2211 g3979
*2212 g3987
*2213 g3989
*2214 g3991
*2215 g3992
*2216 g3998